Version 4
SHEET 1 1500 856
WIRE -832 -336 -848 -336
WIRE 128 -336 64 -336
WIRE 288 -336 192 -336
WIRE 464 -336 368 -336
WIRE -848 -288 -848 -336
WIRE -240 -288 -240 -336
WIRE 64 -288 64 -336
WIRE 464 -288 464 -336
WIRE -240 -176 -240 -208
WIRE 64 -176 64 -208
WIRE 464 -176 464 -224
WIRE 464 -176 64 -176
WIRE -848 -160 -848 -208
WIRE -288 -160 -400 -160
WIRE 128 -80 64 -80
WIRE 288 -80 192 -80
WIRE 464 -80 368 -80
WIRE -832 -64 -848 -64
WIRE -240 -64 -240 -96
WIRE -848 -48 -848 -64
WIRE -288 -48 -288 -112
WIRE 64 -32 64 -80
WIRE 464 -32 464 -80
WIRE 656 0 656 -48
WIRE -592 80 -608 80
WIRE 64 80 64 48
WIRE 464 80 464 32
WIRE 464 80 64 80
WIRE -608 96 -608 80
WIRE 656 112 656 80
WIRE -608 192 -608 176
WIRE 128 192 64 192
WIRE 288 192 192 192
WIRE 464 192 368 192
WIRE -240 240 -240 192
WIRE 64 240 64 192
WIRE 464 240 464 192
WIRE 656 256 656 208
WIRE -832 352 -848 352
WIRE -240 352 -240 320
WIRE 64 352 64 320
WIRE 464 352 464 304
WIRE 464 352 64 352
WIRE -848 368 -848 352
WIRE -288 368 -400 368
WIRE 656 368 656 336
WIRE 128 448 64 448
WIRE 288 448 192 448
WIRE 464 448 368 448
WIRE -288 480 -288 416
WIRE 64 496 64 448
WIRE 464 496 464 448
WIRE -240 512 -240 432
WIRE 64 608 64 576
WIRE 464 608 464 560
WIRE 464 608 64 608
FLAG -848 -160 0
FLAG 464 -80 Vo1
FLAG -288 -48 0
FLAG 464 -336 Vo2
FLAG 464 -176 0
FLAG 464 80 0
FLAG -240 -336 Vd
FLAG -848 -336 Vd
FLAG -848 32 0
FLAG -848 -64 Vg1
FLAG -240 -64 Vcs
FLAG -400 -160 Vg1
FLAG -608 192 0
FLAG 464 448 Vo1
FLAG -288 480 0
FLAG 464 192 Vo2
FLAG 464 352 0
FLAG 464 608 0
FLAG -240 192 Vd
FLAG -240 512 Vcs
FLAG -400 368 Vg2
FLAG -848 448 0
FLAG -848 352 Vg2
FLAG -608 80 Vcs
FLAG 656 112 0
FLAG 656 368 0
FLAG 656 -48 Vo2
FLAG 656 208 Vo1
SYMBOL voltage -848 -304 R0
WINDOW 123 0 0 Left 0
WINDOW 39 0 0 Left 0
SYMATTR InstName Vd
SYMATTR Value 300
SYMBOL voltage -848 -64 M0
WINDOW 123 0 0 Left 0
WINDOW 39 0 0 Left 0
SYMATTR InstName V2
SYMATTR Value PULSE(0 16 0 10n 10n {Ton} {Ts})
SYMBOL ind2 -256 -304 R0
SYMATTR InstName Lp1
SYMATTR Value {L1}
SYMATTR Type ind
SYMBOL ind2 80 64 R180
WINDOW 0 36 80 Left 2
WINDOW 3 36 40 Left 2
SYMATTR InstName L3
SYMATTR Value {L22}
SYMATTR Type ind
SYMBOL sw -240 -80 M180
SYMATTR InstName S1
SYMATTR Value MYSW
SYMBOL diode 128 -64 R270
WINDOW 0 32 32 VTop 2
WINDOW 3 0 32 VBottom 2
SYMATTR InstName D2
SYMBOL res 384 -96 R90
WINDOW 0 0 56 VBottom 2
WINDOW 3 32 56 VTop 2
SYMATTR InstName R2
SYMATTR Value 1m
SYMBOL cap 448 -32 R0
SYMATTR InstName C2
SYMATTR Value 50µ
SYMBOL res 640 240 R0
SYMATTR InstName RL2
SYMATTR Value 10
SYMBOL ind2 80 -192 R180
WINDOW 0 36 80 Left 2
WINDOW 3 36 40 Left 2
SYMATTR InstName L2
SYMATTR Value {L21}
SYMATTR Type ind
SYMBOL diode 128 -320 R270
WINDOW 0 32 32 VTop 2
WINDOW 3 0 32 VBottom 2
SYMATTR InstName D3
SYMBOL res 384 -352 R90
WINDOW 0 0 56 VBottom 2
WINDOW 3 32 56 VTop 2
SYMATTR InstName R4
SYMATTR Value 1m
SYMBOL cap 448 -288 R0
SYMATTR InstName C3
SYMATTR Value 50µ
SYMBOL res 640 -16 R0
SYMATTR InstName RL1
SYMATTR Value {LOAD}
SYMBOL ind2 -256 224 R0
SYMATTR InstName Lp2
SYMATTR Value {L1}
SYMATTR Type ind
SYMBOL ind2 80 592 R180
WINDOW 0 36 80 Left 2
WINDOW 3 36 40 Left 2
SYMATTR InstName L5
SYMATTR Value {L22}
SYMATTR Type ind
SYMBOL sw -240 448 M180
SYMATTR InstName S2
SYMATTR Value MYSW
SYMBOL diode 128 464 R270
WINDOW 0 32 32 VTop 2
WINDOW 3 0 32 VBottom 2
SYMATTR InstName D1
SYMBOL res 384 432 R90
WINDOW 0 0 56 VBottom 2
WINDOW 3 32 56 VTop 2
SYMATTR InstName R6
SYMATTR Value 1m
SYMBOL cap 448 496 R0
SYMATTR InstName C1
SYMATTR Value 50µ
SYMBOL ind2 80 336 R180
WINDOW 0 36 80 Left 2
WINDOW 3 36 40 Left 2
SYMATTR InstName L6
SYMATTR Value {L21}
SYMATTR Type ind
SYMBOL diode 128 208 R270
WINDOW 0 32 32 VTop 2
WINDOW 3 0 32 VBottom 2
SYMATTR InstName D4
SYMBOL res 384 176 R90
WINDOW 0 0 56 VBottom 2
WINDOW 3 32 56 VTop 2
SYMATTR InstName R8
SYMATTR Value 1m
SYMBOL cap 448 240 R0
SYMATTR InstName C4
SYMATTR Value 50µ
SYMBOL res -624 80 R0
SYMATTR InstName R10
SYMATTR Value 0.33
SYMBOL voltage -848 352 M0
WINDOW 123 0 0 Left 0
WINDOW 39 0 0 Left 0
SYMATTR InstName V1
SYMATTR Value PULSE(0 16 {Ts/2} 10n 10n {Ton} {Ts})
TEXT -144 -376 Left 2 !K1 Lp1 L2 L3 1
TEXT 728 -328 Left 2 !.model MYSW SW(Ron=0.01 Roff=10Meg Vt=.5 Vh=.4 Lser=0 Vser=0)
TEXT 728 -248 Left 2 !.tran 0 100m 99.9m
TEXT 728 -288 Left 2 !.param Fsw=50k Ts={1/Fsw} D=0.25 Ton={D*Ts}
TEXT 728 -208 Left 2 !.param AL=4700n N1=25 N21=28 N22=4
TEXT 728 -168 Left 2 !.param L1={AL*N1*N1} L21={AL*N21*N21} L22={AL*N22*N22}
TEXT -144 152 Left 2 !K2 Lp2 L5 L6 1
TEXT 760 40 Left 2 !.step param LOAD 10 200 10
