Version 4
SHEET 1 880 680
WIRE -224 -688 -512 -688
WIRE 192 -688 -224 -688
WIRE 320 -688 192 -688
WIRE -512 -672 -512 -688
WIRE 192 -672 192 -688
WIRE 320 -640 320 -688
WIRE -112 -608 -112 -640
WIRE 256 -592 192 -592
WIRE -512 -576 -512 -592
WIRE -336 -576 -512 -576
WIRE -192 -576 -336 -576
WIRE -512 -560 -512 -576
WIRE 16 -560 -32 -560
WIRE -336 -544 -336 -576
WIRE -320 -544 -336 -544
WIRE -192 -544 -240 -544
WIRE 320 -528 320 -544
WIRE -224 -512 -224 -688
WIRE -224 -512 -400 -512
WIRE -192 -512 -224 -512
WIRE 128 -496 -32 -496
WIRE -400 -480 -400 -512
WIRE -384 -480 -400 -480
WIRE -192 -480 -304 -480
WIRE -304 -464 -304 -480
WIRE 128 -432 128 -496
WIRE 320 -432 320 -448
WIRE 320 -432 128 -432
WIRE 320 -416 320 -432
WIRE -512 -384 -512 -480
WIRE -304 -384 -304 -400
WIRE -112 -384 -112 -448
WIRE 320 -320 320 -336
WIRE -448 -208 -448 -224
WIRE -448 -112 -448 -128
FLAG -448 -112 0
FLAG -448 -224 16
FLAG -112 -640 16
FLAG -112 -384 0
FLAG 320 -320 0
FLAG -512 -384 0
FLAG 16 -560 out
FLAG -304 -384 0
SYMBOL voltage -448 -224 R0
WINDOW 123 0 0 Left 0
WINDOW 39 0 0 Left 0
SYMATTR InstName V1
SYMATTR Value 16
SYMBOL res 176 -688 R0
SYMATTR InstName R1
SYMATTR Value 100
SYMBOL npn 256 -640 R0
SYMATTR InstName Q1
SYMATTR Value 2N2222
SYMBOL res 304 -544 R0
SYMATTR InstName R2
SYMATTR Value 2.5k
SYMBOL res 304 -432 R0
SYMATTR InstName R3
SYMATTR Value 2.5k
SYMBOL res -528 -688 R0
SYMATTR InstName R4
SYMATTR Value 10k
SYMBOL res -528 -576 R0
SYMATTR InstName R5
SYMATTR Value 10k
SYMBOL res -224 -560 R90
WINDOW 0 0 56 VBottom 2
WINDOW 3 32 56 VTop 2
SYMATTR InstName R6
SYMATTR Value 100k
SYMBOL res -288 -496 R90
WINDOW 0 0 56 VBottom 2
WINDOW 3 32 56 VTop 2
SYMATTR InstName R7
SYMATTR Value 15.4k
SYMBOL cap -320 -464 R0
SYMATTR InstName C1
SYMATTR Value 1000p
SYMBOL AutoGenerated\\UCC28C42_STEADY -112 -528 R0
SYMATTR InstName U1
TEXT -536 -88 Left 2 !.tran 1u
