Version 4
SHEET 1 1144 680
WIRE 784 -224 576 -224
WIRE 944 -224 784 -224
WIRE -352 -192 -464 -192
WIRE 576 -192 576 -224
WIRE 784 -192 784 -224
WIRE -464 -160 -464 -192
WIRE -352 -160 -352 -192
WIRE 720 -144 672 -144
WIRE -464 -80 -464 -96
WIRE 944 -80 944 -224
WIRE 48 -64 -224 -64
WIRE 576 -48 576 -112
WIRE 672 -48 672 -144
WIRE 672 -48 576 -48
WIRE 784 -48 784 -96
WIRE 848 -48 784 -48
WIRE 256 -32 160 -32
WIRE 320 -32 256 -32
WIRE 464 -32 400 -32
WIRE 576 -16 576 -48
WIRE 784 -16 784 -48
WIRE 48 0 -16 0
WIRE -16 16 -16 0
WIRE -16 16 -64 16
WIRE 464 32 464 -32
WIRE 512 32 464 32
WIRE 672 32 672 -48
WIRE 720 32 672 32
WIRE -224 48 -224 -64
WIRE -224 48 -288 48
WIRE -176 48 -224 48
WIRE -16 48 -64 48
WIRE -176 80 -192 80
WIRE 576 128 576 80
WIRE 576 128 512 128
WIRE 784 128 784 80
WIRE 784 128 576 128
WIRE 944 128 944 -16
WIRE 944 128 784 128
WIRE -192 208 -192 80
WIRE -16 208 -16 48
WIRE -16 208 -192 208
WIRE 48 208 -16 208
WIRE 240 240 160 240
WIRE 784 240 576 240
WIRE 944 240 784 240
WIRE -224 272 -224 48
WIRE 48 272 -224 272
WIRE 784 272 784 240
WIRE 576 288 576 240
WIRE 720 320 672 320
WIRE 944 384 944 240
WIRE 240 416 240 240
WIRE 320 416 240 416
WIRE 464 416 400 416
WIRE 576 416 576 368
WIRE 672 416 672 320
WIRE 672 416 576 416
WIRE 784 416 784 368
WIRE 848 416 784 416
WIRE 576 448 576 416
WIRE 784 448 784 416
WIRE 464 496 464 416
WIRE 512 496 464 496
WIRE 672 496 672 416
WIRE 720 496 672 496
WIRE 576 592 576 544
WIRE 784 592 784 544
WIRE 784 592 576 592
WIRE 944 592 944 448
WIRE 944 592 784 592
FLAG -288 48 pwmo
FLAG 576 -224 VDD
FLAG 848 -48 VGG1
FLAG 512 128 0
FLAG -560 288 pwmo
FLAG -560 368 0
FLAG -352 -80 0
FLAG -352 -192 VDD
FLAG -64 80 VDD
FLAG -64 112 0
FLAG -176 112 0
FLAG -176 16 0
FLAG -464 -80 0
FLAG 256 -32 nand
FLAG 576 240 VDD
FLAG 848 416 VGG2
FLAG 576 592 0
FLAG -16 0 Q
SYMBOL npn 720 -192 R0
SYMATTR InstName Q2
SYMATTR Value 2N2222
SYMBOL pnp 720 80 M180
SYMATTR InstName Q3
SYMATTR Value 2N2907
SYMBOL res 560 -208 R0
SYMATTR InstName R1
SYMATTR Value 12k
SYMBOL res 416 -48 R90
WINDOW 0 0 56 VBottom 2
WINDOW 3 32 56 VTop 2
SYMATTR InstName R2
SYMATTR Value 1k
SYMBOL res 416 400 R90
WINDOW 0 0 56 VBottom 2
WINDOW 3 32 56 VTop 2
SYMATTR InstName R4
SYMATTR Value 1k
SYMBOL voltage -560 272 R0
WINDOW 123 0 0 Left 0
WINDOW 39 0 0 Left 0
SYMATTR InstName V1
SYMATTR Value PULSE(0 16 0 1n 1n 10u 20u)
SYMBOL voltage -352 -176 R0
WINDOW 123 0 0 Left 0
WINDOW 39 0 0 Left 0
SYMATTR InstName V2
SYMATTR Value 16
SYMBOL CD4013B -128 64 R0
SYMATTR InstName U1
SYMATTR SpiceLine VDD=16 SPEED=1.0 TRIPDT=1e-9
SYMBOL CD4093B 96 -32 R0
SYMATTR InstName U2
SYMATTR SpiceLine VDD=16 SPEED=1.0 TRIPDT=1e-9
SYMBOL CD4093B 96 240 R0
SYMATTR InstName U3
SYMATTR SpiceLine VDD=16 SPEED=1.0 TRIPDT=1e-9
SYMBOL cap -480 -160 R0
SYMATTR InstName C1
SYMATTR Value 300n
SYMBOL cap 928 -80 R0
SYMATTR InstName C2
SYMATTR Value 10µ
SYMBOL npn 720 272 R0
SYMATTR InstName Q4
SYMATTR Value 2N2222
SYMBOL pnp 720 544 M180
SYMATTR InstName Q5
SYMATTR Value 2N2907
SYMBOL res 560 272 R0
SYMATTR InstName R3
SYMATTR Value 12k
SYMBOL cap 928 384 R0
SYMATTR InstName C3
SYMATTR Value 10µ
SYMBOL npn 512 -16 R0
SYMATTR InstName Q1
SYMATTR Value 2N2222
SYMBOL npn 512 448 R0
SYMATTR InstName Q6
SYMATTR Value 2N2222
TEXT -594 600 Left 2 !.tran 100u
