Version 4
SHEET 1 880 680
WIRE -288 -336 -512 -336
WIRE -160 -336 -288 -336
WIRE -32 -336 -160 -336
WIRE 272 -336 -32 -336
WIRE 304 -336 272 -336
WIRE 432 -336 304 -336
WIRE -160 -304 -160 -336
WIRE -512 -288 -512 -336
WIRE -288 -288 -288 -336
WIRE 432 -272 320 -272
WIRE -32 -256 -96 -256
WIRE 80 -240 -336 -240
WIRE 272 -240 272 -336
WIRE 272 -240 240 -240
WIRE 80 -208 -96 -208
WIRE 384 -208 240 -208
WIRE -512 -192 -512 -208
WIRE -416 -192 -416 -240
WIRE -416 -192 -512 -192
WIRE -96 -192 -96 -208
WIRE -96 -192 -416 -192
WIRE 304 -192 304 -336
WIRE -160 -176 -160 -208
WIRE 80 -176 -160 -176
WIRE 320 -176 320 -272
WIRE 320 -176 240 -176
WIRE -512 -160 -512 -192
WIRE -160 -160 -160 -176
WIRE -288 -144 -288 -208
WIRE 80 -144 -288 -144
WIRE 272 -144 240 -144
WIRE -288 -128 -288 -144
WIRE 272 -128 272 -144
WIRE 304 -128 272 -128
WIRE 384 -128 304 -128
WIRE 384 -96 384 -128
WIRE -512 -32 -512 -80
WIRE -288 -32 -288 -64
WIRE -160 -32 -160 -80
FLAG 384 -96 0
FLAG -288 -32 0
FLAG 432 -272 out
FLAG 432 -336 ref
FLAG -160 -32 0
FLAG -512 -32 0
SYMBOL AutoGenerated\\UCC28C42_STEADY 160 -192 R0
SYMATTR InstName U1
SYMBOL voltage 384 -224 R0
WINDOW 123 0 0 Left 0
WINDOW 39 0 0 Left 0
SYMATTR InstName V1
SYMATTR Value 16
SYMBOL res -304 -304 R0
SYMATTR InstName R1
SYMATTR Value 15k4
SYMBOL cap -304 -128 R0
SYMATTR InstName C1
SYMATTR Value 1n
SYMBOL npn -96 -304 M0
SYMATTR InstName Q1
SYMBOL res -48 -352 R0
SYMATTR InstName R2
SYMATTR Value 1k
SYMBOL res -176 -176 R0
SYMATTR InstName R3
SYMATTR Value 1k
SYMBOL res -320 -256 R90
WINDOW 0 0 56 VBottom 2
WINDOW 3 32 56 VTop 2
SYMATTR InstName R4
SYMATTR Value 100k
SYMBOL res -528 -304 R0
SYMATTR InstName R5
SYMATTR Value 10k
SYMBOL res -528 -176 R0
SYMATTR InstName R6
SYMATTR Value 10k
SYMBOL cap 288 -192 R0
SYMATTR InstName C2
SYMATTR Value u1
TEXT 42 -72 Left 2 !.tran 1u
