Version 4
SHEET 1 1032 1444
WIRE -400 -352 -1232 -352
WIRE 128 -336 64 -336
WIRE 288 -336 192 -336
WIRE 464 -336 368 -336
WIRE 544 -336 464 -336
WIRE 624 -336 544 -336
WIRE -1232 -304 -1232 -352
WIRE -400 -304 -400 -352
WIRE 64 -288 64 -336
WIRE 464 -288 464 -336
WIRE 624 -288 624 -336
WIRE -400 -192 -400 -224
WIRE -1232 -176 -1232 -224
WIRE 64 -176 64 -208
WIRE 464 -176 464 -224
WIRE 464 -176 64 -176
WIRE 624 -176 624 -208
WIRE 624 -176 464 -176
WIRE 464 -144 464 -176
WIRE 128 -80 64 -80
WIRE 288 -80 192 -80
WIRE 464 -80 368 -80
WIRE 544 -80 464 -80
WIRE 624 -80 544 -80
WIRE 64 -32 64 -80
WIRE 464 -32 464 -80
WIRE 624 -32 624 -80
WIRE -400 -16 -400 -112
WIRE -160 -16 -400 -16
WIRE -400 0 -400 -16
WIRE -160 16 -160 -16
WIRE -160 16 -208 16
WIRE -112 16 -160 16
WIRE -208 32 -208 16
WIRE -112 32 -112 16
WIRE -448 80 -640 80
WIRE 64 80 64 48
WIRE 464 80 464 32
WIRE 464 80 64 80
WIRE 624 80 624 48
WIRE 624 80 464 80
WIRE 464 112 464 80
WIRE -400 144 -400 96
WIRE -400 144 -912 144
WIRE -208 144 -208 96
WIRE -160 144 -208 144
WIRE -112 144 -112 112
WIRE -112 144 -160 144
WIRE -400 176 -400 144
WIRE -160 208 -160 144
WIRE -400 320 -400 256
WIRE -160 320 -160 272
WIRE -480 544 -1232 544
WIRE -912 576 -912 144
WIRE -608 624 -672 624
WIRE -608 640 -608 624
WIRE -1232 656 -1232 544
WIRE -640 656 -640 80
WIRE -640 656 -672 656
WIRE -912 688 -912 656
WIRE -832 688 -912 688
WIRE -544 688 -672 688
WIRE -544 704 -544 688
WIRE -16 704 -96 704
WIRE 176 704 -16 704
WIRE -832 720 -976 720
WIRE -480 720 -480 544
WIRE -480 720 -672 720
WIRE -96 736 -96 704
WIRE -1232 752 -1232 736
WIRE -976 752 -976 720
WIRE -976 752 -1232 752
WIRE -16 768 -16 704
WIRE -1232 784 -1232 752
WIRE -480 848 -480 720
WIRE -304 848 -480 848
WIRE -96 848 -96 816
WIRE -96 848 -112 848
WIRE 176 848 176 704
WIRE -1232 896 -1232 848
WIRE -672 912 -720 912
WIRE -384 912 -592 912
WIRE -304 912 -384 912
WIRE -384 944 -384 912
WIRE -96 944 -112 944
WIRE -16 944 -16 848
WIRE -16 944 -96 944
WIRE 48 944 -16 944
WIRE 176 944 176 928
WIRE 176 944 112 944
WIRE -384 1040 -384 1024
WIRE -16 1040 -16 944
WIRE -96 1072 -96 944
WIRE 176 1104 176 944
WIRE 176 1104 32 1104
WIRE 176 1200 176 1104
WIRE -96 1280 -96 1136
WIRE -16 1280 -16 1168
WIRE -16 1280 -96 1280
WIRE 176 1280 -16 1280
WIRE -16 1296 -16 1280
WIRE 176 1296 176 1280
FLAG -400 320 0
FLAG -1232 -176 0
FLAG 544 -336 112
FLAG 544 -80 16
FLAG 464 -144 0
FLAG 464 112 0
FLAG -160 320 0
FLAG 176 1296 0
FLAG -16 1296 0
FLAG -384 1040 0
FLAG -720 912 fb
FLAG -608 640 0
FLAG -1232 896 0
FLAG -912 752 0
FLAG 176 704 112
FLAG -544 784 0
SYMBOL voltage -1232 -320 R0
WINDOW 123 0 0 Left 0
WINDOW 39 0 0 Left 0
SYMATTR InstName Vd
SYMATTR Value 300
SYMBOL ind2 -416 -320 R0
SYMATTR InstName L1
SYMATTR Value {Lm}
SYMATTR Type ind
SYMBOL ind2 80 64 R180
WINDOW 0 36 80 Left 2
WINDOW 3 36 40 Left 2
SYMATTR InstName L3
SYMATTR Value {L22}
SYMATTR Type ind
SYMBOL diode 128 -64 R270
WINDOW 0 32 32 VTop 2
WINDOW 3 0 32 VBottom 2
SYMATTR InstName D2
SYMBOL res 272 -96 M90
WINDOW 0 0 56 VBottom 2
WINDOW 3 32 56 VTop 2
SYMATTR InstName R2
SYMATTR Value 1m
SYMBOL cap 448 -32 R0
SYMATTR InstName C2
SYMATTR Value 47µ
SYMBOL res 608 -48 R0
SYMATTR InstName R3
SYMATTR Value 100
SYMBOL ind2 80 -192 R180
WINDOW 0 36 80 Left 2
WINDOW 3 36 40 Left 2
SYMATTR InstName L2
SYMATTR Value {L21}
SYMATTR Type ind
SYMBOL diode 128 -320 R270
WINDOW 0 32 32 VTop 2
WINDOW 3 0 32 VBottom 2
SYMATTR InstName D3
SYMBOL res 272 -352 M90
WINDOW 0 0 56 VBottom 2
WINDOW 3 32 56 VTop 2
SYMATTR InstName R4
SYMATTR Value 1m
SYMBOL cap 448 -288 R0
SYMATTR InstName C3
SYMATTR Value 47µ
SYMBOL res 608 -304 R0
SYMATTR InstName R5
SYMATTR Value 220
SYMBOL nmos -448 0 R0
WINDOW 3 -200 27 Left 2
SYMATTR Value STW11NM80
SYMATTR InstName M1
SYMBOL ind2 -416 -208 R0
SYMATTR InstName L4
SYMATTR Value {Ld}
SYMATTR Type ind
SYMBOL res -96 128 R180
WINDOW 0 -38 65 Left 2
WINDOW 3 -115 22 Left 2
SYMATTR InstName R1
SYMATTR Value {R_snub}
SYMBOL cap -176 208 R0
SYMATTR InstName C1
SYMATTR Value {C_snub}
SYMBOL diode -224 32 R0
WINDOW 0 -25 66 Left 2
SYMATTR InstName D1
SYMBOL AutoGenerated\\UCC28C42_STEADY -752 672 R0
SYMATTR InstName U1
SYMBOL Optos\\4N25 -208 912 M0
SYMATTR InstName U4
SYMBOL res -112 720 R0
SYMATTR InstName R7
SYMATTR Value 5k4
SYMBOL res 160 832 R0
SYMATTR InstName R8
SYMATTR Value 43.8k
SYMBOL res 160 1184 R0
SYMATTR InstName R9
SYMATTR Value 1k
SYMBOL zener -80 1136 R180
WINDOW 0 24 64 Left 2
WINDOW 3 24 0 Left 2
SYMATTR InstName D4
SYMATTR Value BZX84C10L
SYMBOL cap 112 928 R90
WINDOW 0 0 32 VBottom 2
WINDOW 3 32 32 VTop 2
SYMATTR InstName C4
SYMATTR Value 100p
SYMBOL AutoGenerated\\TL431 -16 1104 R180
SYMATTR InstName U5
SYMBOL res -32 752 R0
SYMATTR InstName R10
SYMATTR Value 1k
SYMBOL res -400 928 R0
SYMATTR InstName R11
SYMATTR Value 220
SYMBOL res -576 896 R90
WINDOW 0 0 56 VBottom 2
WINDOW 3 32 56 VTop 2
SYMATTR InstName R12
SYMATTR Value 4.99k
SYMBOL res -1248 640 R0
SYMATTR InstName R6
SYMATTR Value 15k4
SYMBOL cap -1248 784 R0
SYMATTR InstName C5
SYMATTR Value 1n
SYMBOL res -416 160 R0
SYMATTR InstName R13
SYMATTR Value 10
SYMBOL cap -928 688 R0
SYMATTR InstName C6
SYMATTR Value 100p
SYMBOL res -928 560 R0
SYMATTR InstName R14
SYMATTR Value 4k2
SYMBOL voltage -544 688 R0
WINDOW 123 0 0 Left 0
WINDOW 39 0 0 Left 0
SYMATTR InstName V1
SYMATTR Value 16
TEXT -144 -376 Left 2 !K1 L1 L2 L3 1
TEXT 56 352 Left 2 !.tran 0 1m 0
TEXT 56 320 Left 2 !.param Fsw=100k Ts={1/Fsw} D=0.25 Ton={D*Ts}
TEXT 56 384 Left 2 !.param AL=4700n N1=25 N21=28 N22=4
TEXT 56 416 Left 2 !.param L1={AL*N1*N1} L21={AL*N21*N21} L22={AL*N22*N22}
TEXT 56 448 Left 2 !.param K=.9999 Ld={(1-K)*L1} Lm={K*L1}
TEXT 56 480 Left 2 !.param R_snub=680
TEXT 56 512 Left 2 !.param C_snub=2n2
