Version 4
SHEET 1 880 680
WIRE -64 -80 -224 -80
WIRE 288 -80 208 -80
WIRE 480 -80 288 -80
WIRE 624 -80 480 -80
WIRE -224 -64 -224 -80
WIRE 208 -48 208 -80
WIRE 288 16 288 -80
WIRE -64 64 -64 -80
WIRE -32 64 -64 64
WIRE 208 64 208 32
WIRE 208 64 160 64
WIRE -368 128 -416 128
WIRE -144 128 -288 128
WIRE -32 128 -144 128
WIRE 624 128 624 -80
WIRE -144 160 -144 128
WIRE 208 160 160 160
WIRE 288 160 288 96
WIRE 288 160 208 160
WIRE 288 208 288 160
WIRE 320 208 288 208
WIRE 400 208 384 208
WIRE 480 208 480 -80
WIRE -144 256 -144 240
WIRE 288 256 288 208
WIRE 624 272 624 208
WIRE 208 288 208 160
WIRE 400 320 400 208
WIRE 400 320 336 320
WIRE 480 320 480 288
WIRE 480 320 400 320
WIRE 480 368 480 320
WIRE 208 496 208 352
WIRE 288 496 288 384
WIRE 288 496 208 496
WIRE 480 496 480 448
WIRE 480 496 288 496
WIRE 288 512 288 496
WIRE 480 512 480 496
FLAG 480 512 0
FLAG 624 272 0
FLAG 288 512 0
FLAG -144 256 0
FLAG -416 128 fb
FLAG -224 16 0
SYMBOL Optos\\4N25 64 128 M0
SYMATTR InstName U1
SYMBOL res 192 -64 R0
SYMATTR InstName R1
SYMATTR Value 24.6k
SYMBOL res 464 192 R0
SYMATTR InstName R2
SYMATTR Value 109k
SYMBOL res 464 352 R0
SYMATTR InstName R3
SYMATTR Value 2.38k
SYMBOL zener 224 352 R180
WINDOW 0 24 64 Left 2
WINDOW 3 24 0 Left 2
SYMATTR InstName D1
SYMATTR Value UFZV33B
SYMBOL voltage 624 112 R0
WINDOW 123 0 0 Left 0
WINDOW 39 0 0 Left 0
SYMATTR InstName V1
SYMATTR Value 112
SYMBOL AutoGenerated\\TL431 288 320 R180
SYMATTR InstName U2
SYMBOL res -160 144 R0
SYMATTR InstName R4
SYMATTR Value 1k
SYMBOL voltage -224 -80 R0
WINDOW 123 0 0 Left 0
WINDOW 39 0 0 Left 0
SYMATTR InstName V2
SYMATTR Value 5
SYMBOL res -272 112 R90
WINDOW 0 0 56 VBottom 2
WINDOW 3 32 56 VTop 2
SYMATTR InstName R5
SYMATTR Value 5K
SYMBOL res 272 0 R0
SYMATTR InstName R6
SYMATTR Value 10k
SYMBOL cap 384 192 R90
WINDOW 0 0 32 VBottom 2
WINDOW 3 32 32 VTop 2
SYMATTR InstName C1
SYMATTR Value 100p
SYMBOL AutoGenerated\\UCC28C42_STEADY -672 -576 R0
SYMATTR InstName U3
SYMBOL voltage -1088 -624 R0
WINDOW 123 0 0 Left 0
WINDOW 39 0 0 Left 0
SYMATTR InstName V3
SYMATTR Value 16V
TEXT -240 504 Left 2 !.tran 300u
